Version 4
SHEET 1 1952 1184
WIRE -272 -240 -320 -240
WIRE -128 -240 -208 -240
WIRE -16 -240 -48 -240
WIRE 48 -240 -16 -240
WIRE 304 -240 128 -240
WIRE -320 -144 -320 -240
WIRE -272 -144 -320 -144
WIRE -128 -144 -208 -144
WIRE -16 -144 -16 -240
WIRE -16 -144 -48 -144
WIRE 48 -144 -16 -144
WIRE 304 -144 304 -240
WIRE 304 -144 112 -144
WIRE -320 -96 -320 -144
WIRE -192 16 -240 16
WIRE 48 32 16 32
WIRE 176 32 112 32
WIRE -240 64 -240 16
WIRE 16 112 16 32
WIRE 160 112 16 112
WIRE 1520 112 1520 -48
WIRE 160 144 160 112
WIRE 176 144 176 32
WIRE 192 144 192 -16
WIRE -16 160 -16 -144
WIRE 144 160 -16 160
WIRE 304 176 304 -144
WIRE 304 176 208 176
WIRE 336 176 304 176
WIRE 432 176 400 176
WIRE 592 176 512 176
WIRE 640 176 592 176
WIRE 800 176 640 176
WIRE 928 176 880 176
WIRE 1136 176 1008 176
WIRE 1264 176 1136 176
WIRE 1408 176 1328 176
WIRE 1472 176 1408 176
WIRE -384 192 -608 192
WIRE -368 192 -384 192
WIRE -240 192 -240 144
WIRE -240 192 -304 192
WIRE -176 192 -240 192
WIRE 16 192 -96 192
WIRE 144 192 16 192
WIRE 1408 208 1408 176
WIRE -384 224 -384 192
WIRE -608 240 -608 192
WIRE 1136 240 1136 176
WIRE 16 256 16 192
WIRE 592 256 592 176
WIRE 640 256 640 176
WIRE 176 288 176 208
WIRE 1520 320 1520 208
WIRE 1712 320 1520 320
WIRE 1872 320 1776 320
WIRE 1408 352 1408 288
WIRE 1520 352 1520 320
WIRE -608 368 -608 320
WIRE -384 368 -384 304
WIRE 16 368 16 320
WIRE 592 368 592 320
WIRE 640 368 640 320
WIRE 1136 368 1136 304
WIRE 1872 368 1872 320
WIRE 1520 496 1520 432
WIRE 1872 496 1872 448
WIRE -560 704 -608 704
WIRE -608 816 -608 704
WIRE -496 816 -608 816
WIRE -368 816 -416 816
WIRE -288 816 -368 816
WIRE -192 816 -288 816
WIRE -80 816 -192 816
WIRE -32 816 -80 816
WIRE -80 848 -80 816
WIRE -80 960 -80 928
WIRE 16 960 -80 960
WIRE 64 960 16 960
WIRE -80 976 -80 960
WIRE -608 992 -608 816
WIRE -368 992 -368 816
WIRE -288 992 -288 816
WIRE -192 992 -192 816
WIRE 16 992 16 960
WIRE -368 1056 -368 1040
WIRE -608 1104 -608 1072
WIRE -368 1104 -368 1056
WIRE -288 1104 -288 1056
WIRE -192 1104 -192 1056
WIRE -80 1104 -80 1056
WIRE 16 1104 16 1056
FLAG 176 288 0
FLAG -608 1104 0
FLAG -32 816 V9P0
FLAG 192 -16 V9P0
FLAG 16 368 0
FLAG -384 368 0
FLAG -608 368 0
FLAG -288 1104 0
FLAG -192 1104 0
FLAG -560 704 V9P0_BATT
FLAG -368 1104 0
FLAG -80 1104 0
FLAG 16 1104 0
FLAG 64 960 V4P5
FLAG -320 -96 0
FLAG -192 16 V4P5
FLAG 592 368 0
FLAG 640 368 0
FLAG 1136 368 0
FLAG 1408 352 0
FLAG 1520 496 0
FLAG 1520 -48 V9P0
FLAG 1872 496 0
SYMBOL Opamps\\LM308 176 112 R0
SYMATTR InstName U1
SYMBOL voltage -608 976 R0
SYMATTR InstName V1
SYMATTR Value 9V
SYMBOL cap 112 16 R90
WINDOW 0 0 32 VBottom 2
WINDOW 3 32 32 VTop 2
SYMATTR InstName C1
SYMATTR Value 30pF
SYMBOL cap 0 256 R0
SYMATTR InstName C2
SYMATTR Value 1nF
SYMBOL res -80 176 R90
WINDOW 0 0 56 VBottom 2
WINDOW 3 32 56 VTop 2
SYMATTR InstName R1
SYMATTR Value 1k
SYMBOL cap -304 176 R90
WINDOW 0 0 32 VBottom 2
WINDOW 3 32 32 VTop 2
SYMATTR InstName C3
SYMATTR Value 22nF
SYMBOL res -256 48 R0
SYMATTR InstName R2
SYMATTR Value 1Meg
SYMBOL res -368 208 M0
SYMATTR InstName R3
SYMATTR Value 1Meg
SYMBOL voltage -608 224 R0
SYMATTR InstName V2
SYMBOL cap -304 992 R0
SYMATTR InstName C4
SYMATTR Value 100µF
SYMBOL cap -208 992 R0
SYMATTR InstName C5
SYMATTR Value 0.1µF
SYMBOL res -400 800 R90
WINDOW 0 0 56 VBottom 2
WINDOW 3 32 56 VTop 2
SYMATTR InstName R4
SYMATTR Value 47
SYMBOL diode -352 1056 R180
WINDOW 0 24 64 Left 2
WINDOW 3 24 0 Left 2
SYMATTR InstName D1
SYMATTR Value 1N4148
SYMBOL res -96 832 R0
SYMATTR InstName R5
SYMATTR Value 100k
SYMBOL res -96 960 R0
SYMATTR InstName R6
SYMATTR Value 100k
SYMBOL cap 0 992 R0
SYMATTR InstName C6
SYMATTR Value 1µF
SYMBOL cap -272 -224 R270
WINDOW 0 32 32 VTop 2
WINDOW 3 0 32 VBottom 2
SYMATTR InstName C7
SYMATTR Value 2.2µF
SYMBOL cap -272 -128 R270
WINDOW 0 32 32 VTop 2
WINDOW 3 0 32 VBottom 2
SYMATTR InstName C8
SYMATTR Value 4.7µF
SYMBOL res -32 -256 R90
WINDOW 0 0 56 VBottom 2
WINDOW 3 32 56 VTop 2
SYMATTR InstName R7
SYMATTR Value 47
SYMBOL res -32 -160 R90
WINDOW 0 0 56 VBottom 2
WINDOW 3 32 56 VTop 2
SYMATTR InstName R8
SYMATTR Value 560
SYMBOL res 144 -256 R90
WINDOW 0 0 56 VBottom 2
WINDOW 3 32 56 VTop 2
SYMATTR InstName R9
SYMATTR Value {Rvfb}
SYMBOL cap 48 -128 R270
WINDOW 0 32 32 VTop 2
WINDOW 3 0 32 VBottom 2
SYMATTR InstName C9
SYMATTR Value 100pF
SYMBOL cap 336 192 R270
WINDOW 0 32 32 VTop 2
WINDOW 3 0 32 VBottom 2
SYMATTR InstName C10
SYMATTR Value 4.7µF
SYMBOL res 528 160 R90
WINDOW 0 0 56 VBottom 2
WINDOW 3 32 56 VTop 2
SYMATTR InstName R10
SYMATTR Value 1k
SYMBOL diode 608 320 R180
WINDOW 0 24 64 Left 2
WINDOW 3 24 0 Left 2
SYMATTR InstName D2
SYMATTR Value 1N4148
SYMBOL diode 624 256 R0
SYMATTR InstName D3
SYMATTR Value 1N4148
SYMBOL res 896 160 R90
WINDOW 0 0 56 VBottom 2
WINDOW 3 32 56 VTop 2
SYMATTR InstName R11
SYMATTR Value {Rtone}
SYMBOL cap 1120 240 R0
SYMATTR InstName C11
SYMATTR Value 3.3nF
SYMBOL cap 1328 160 R90
WINDOW 0 0 32 VBottom 2
WINDOW 3 32 32 VTop 2
SYMATTR InstName C12
SYMATTR Value 22nF
SYMBOL res 1424 192 M0
SYMATTR InstName R12
SYMATTR Value 1Meg
SYMBOL res 1536 336 M0
SYMATTR InstName R13
SYMATTR Value 10k
SYMBOL njf 1472 112 R0
SYMATTR InstName J1
SYMATTR Value 2N5485
SYMBOL cap 1776 304 R90
WINDOW 0 0 32 VBottom 2
WINDOW 3 32 32 VTop 2
SYMATTR InstName C13
SYMATTR Value 1µF
SYMBOL res 1888 464 R180
WINDOW 0 36 76 Left 2
WINDOW 3 36 40 Left 2
SYMATTR InstName R14
SYMATTR Value {Rvolume}
SYMBOL res 1024 160 R90
WINDOW 0 0 56 VBottom 2
WINDOW 3 32 56 VTop 2
SYMATTR InstName R15
SYMATTR Value 1.5k
TEXT 136 -272 Left 2 ;R9 = 100k Potentiometer
TEXT 856 104 Left 2 ;R11 = 100k Potentiometer
TEXT 1648 200 Left 2 ;R14 = 100k Potentiometer
TEXT 1648 136 Left 2 ;J1 Nominally 2N5458 JFET
TEXT 40 -376 Left 5 ;Clipping
TEXT 864 -368 Left 5 ;Tone
TEXT 1440 -360 Left 5 ;Output
TEXT -344 656 Left 5 ;Power
TEXT -848 944 Left 5 ;Power
TEXT -464 1168 Left 2 ;D1 nominally 1N4002
LINE Normal 752 592 752 -416 2
LINE Normal 1216 608 1216 -400 2
LINE Normal 496 544 -784 544 2
